systems/win/ieee14_31.raw
0, 100.00, 31, 0, 0 / EXPORT BY PSAT
 08/19/93 UW ARCHIVE           100.0  1962 W IEEE 14 Bus Test Case

       1,'Bus 1       ', 138.00,3,   1,   1,   1,1.06769,   0.0000
       2,'Bus 2       ', 138.00,2,   1,   1,   1,1.04500,  -4.8042
       3,'Bus 3       ', 138.00,2,   1,   1,   1,1.01000, -12.5403
       4,'Bus 4       ', 138.00,1,   1,   1,   1,1.01860, -10.1452
       5,'Bus 5       ', 138.00,1,   1,   1,   1,1.02104,  -8.6176
       6,'Bus 6       ', 138.00,2,   1,   1,   1,1.07000, -14.0505
       7,'Bus 7       ', 138.00,1,   1,   1,   1,1.06194, -13.1909
       8,'Bus 8       ', 138.00,2,   1,   1,   1,1.09000, -13.1909
       9,'Bus 9       ', 138.00,1,   1,   1,   1,1.05635, -14.7702
      10,'Bus 10      ', 138.00,1,   1,   1,   1,1.05133, -14.9287
      11,'Bus 11      ', 138.00,1,   1,   1,   1,1.05708, -14.6213
      12,'Bus 12      ', 138.00,1,   1,   1,   1,1.05522, -14.9050
      13,'Bus 13      ', 138.00,1,   1,   1,   1,1.05044, -14.9862
      14,'Bus 14      ', 138.00,1,   1,   1,   1,1.03580, -15.8641
0 / END OF BUS DATA, BEGIN LOAD DATA
     2,'1 ',1,   1,   1,    21.700,    12.700,     0.000,     0.000,     0.000,     0.000,   1
     3,'1 ',1,   1,   1,    94.200,    19.000,     0.000,     0.000,     0.000,     0.000,   1
     4,'1 ',1,   1,   1,    47.800,    -3.900,     0.000,     0.000,     0.000,     0.000,   1
     5,'1 ',1,   1,   1,     7.600,     1.600,     0.000,     0.000,     0.000,     0.000,   1
     6,'1 ',1,   1,   1,    11.200,     7.500,     0.000,     0.000,     0.000,     0.000,   1
     9,'1 ',1,   1,   1,    29.500,    16.600,     0.000,     0.000,     0.000,     0.000,   1
    10,'1 ',1,   1,   1,     9.000,     5.800,     0.000,     0.000,     0.000,     0.000,   1
    11,'1 ',1,   1,   1,     3.500,     1.800,     0.000,     0.000,     0.000,     0.000,   1
    12,'1 ',1,   1,   1,     6.100,     1.600,     0.000,     0.000,     0.000,     0.000,   1
    13,'1 ',1,   1,   1,    13.500,     5.800,     0.000,     0.000,     0.000,     0.000,   1
    14,'1 ',1,   1,   1,    14.900,     5.000,     0.000,     0.000,     0.000,     0.000,   1
0 / END OF LOAD DATA, BEGIN FIXED SHUNT DATA
 9, ' 1', 1, 0.000, 19.000
 0 / END OF FIXED SHUNT DATA, BEGIN GENERATOR DATA 
     1,'1 ',   232.23,     0.00,     0.00,     0.00,1.06000,     0,   615.00,      0.00000,      1.00000,      0.00000,      0.00000,1.00000,1,  100.0, 10000.00,-10000.00,   1,1.0000,,,,,,,  0, 1.0000
     2,'1 ',    40.00,    28.08,    50.00,   -40.00,1.04500,     0,    60.00,      0.00000,      1.00000,      0.00000,      0.00000,1.00000,1,  100.0, 10000.00,-10000.00,   1,1.0000,,,,,,,  0, 1.0000
     3,'1 ',     0.00,    24.52,    40.00,     0.00,1.01000,     0,    60.00,      0.00000,      1.00000,      0.00000,      0.00000,1.00000,1,  100.0, 10000.00,-10000.00,   1,1.0000,,,,,,,  0, 1.0000
     6,'1 ',     0.00,    11.89,    24.00,    -6.00,1.07000,     0,    25.00,      0.00000,      1.00000,      0.00000,      0.00000,1.00000,1,  100.0, 10000.00,-10000.00,   1,1.0000,,,,,,,  0, 1.0000
     8,'1 ',     0.00,    17.36,    24.00,    -6.00,1.09000,     0,    25.00,      0.00000,      1.00000,      0.00000,      0.00000,1.00000,1,  100.0, 10000.00,-10000.00,   1,1.0000,,,,,,,  0, 1.0000
0 / END OF GENERATOR DATA, BEGIN BRANCH DATA
       1,       2,'1 ',    0.19380E-01,    0.59170E-01,    0.52800E-01,    0.00,    0.00,    0.00,  0.00000,  0.00000,  0.00000,  0.00000,1,  1,   0.00,   1,1.0000,,,,,,,
       1,       5,'1 ',    0.54030E-01,    0.22304    ,    0.49200E-01,    0.00,    0.00,    0.00,  0.00000,  0.00000,  0.00000,  0.00000,1,  1,   0.00,   1,1.0000,,,,,,,
       2,       3,'1 ',    0.46990E-01,    0.19797    ,    0.43800E-01,    0.00,    0.00,    0.00,  0.00000,  0.00000,  0.00000,  0.00000,1,  1,   0.00,   1,1.0000,,,,,,,
       2,       4,'1 ',    0.58110E-01,    0.17632    ,    0.34000E-01,    0.00,    0.00,    0.00,  0.00000,  0.00000,  0.00000,  0.00000,1,  1,   0.00,   1,1.0000,,,,,,,
       2,       5,'1 ',    0.56950E-01,    0.17388    ,    0.34600E-01,    0.00,    0.00,    0.00,  0.00000,  0.00000,  0.00000,  0.00000,1,  1,   0.00,   1,1.0000,,,,,,,
       3,       4,'1 ',    0.67010E-01,    0.17103    ,    0.12800E-01,    0.00,    0.00,    0.00,  0.00000,  0.00000,  0.00000,  0.00000,1,  1,   0.00,   1,1.0000,,,,,,,
       4,       5,'1 ',    0.13350E-01,    0.42110E-01,     0.0000    ,    0.00,    0.00,    0.00,  0.00000,  0.00000,  0.00000,  0.00000,1,  1,   0.00,   1,1.0000,,,,,,,
       6,      11,'1 ',    0.94980E-01,    0.19890    ,     0.0000    ,    0.00,    0.00,    0.00,  0.00000,  0.00000,  0.00000,  0.00000,1,  1,   0.00,   1,1.0000,,,,,,,
       6,      12,'1 ',    0.12291    ,    0.25581    ,     0.0000    ,    0.00,    0.00,    0.00,  0.00000,  0.00000,  0.00000,  0.00000,1,  1,   0.00,   1,1.0000,,,,,,,
       6,      13,'1 ',    0.66150E-01,    0.13027    ,     0.0000    ,    0.00,    0.00,    0.00,  0.00000,  0.00000,  0.00000,  0.00000,1,  1,   0.00,   1,1.0000,,,,,,,
       7,       8,'1 ',     0.0000    ,    0.17615    ,     0.0000    ,    0.00,    0.00,    0.00,  0.00000,  0.00000,  0.00000,  0.00000,1,  1,   0.00,   1,1.0000,,,,,,,
       7,       9,'1 ',     0.0000    ,    0.11001    ,     0.0000    ,    0.00,    0.00,    0.00,  0.00000,  0.00000,  0.00000,  0.00000,1,  1,   0.00,   1,1.0000,,,,,,,
       9,      10,'1 ',    0.31810E-01,    0.84500E-01,     0.0000    ,    0.00,    0.00,    0.00,  0.00000,  0.00000,  0.00000,  0.00000,1,  1,   0.00,   1,1.0000,,,,,,,
       9,      14,'1 ',    0.12711    ,    0.27038    ,     0.0000    ,    0.00,    0.00,    0.00,  0.00000,  0.00000,  0.00000,  0.00000,1,  1,   0.00,   1,1.0000,,,,,,,
      10,      11,'1 ',    0.82050E-01,    0.19207    ,     0.0000    ,    0.00,    0.00,    0.00,  0.00000,  0.00000,  0.00000,  0.00000,1,  1,   0.00,   1,1.0000,,,,,,,
      12,      13,'1 ',    0.22092    ,    0.19988    ,     0.0000    ,    0.00,    0.00,    0.00,  0.00000,  0.00000,  0.00000,  0.00000,1,  1,   0.00,   1,1.0000,,,,,,,
      13,      14,'1 ',    0.17093    ,    0.34802    ,     0.0000    ,    0.00,    0.00,    0.00,  0.00000,  0.00000,  0.00000,  0.00000,1,  1,   0.00,   1,1.0000,,,,,,,
0 / END OF BRANCH DATA, BEGIN TRANSFORMER DATA
       4,       7, 0,'1 ',1,1,1,   0.00000,   0.00000, 2,'', 1,   1,1.0000,,,,,,,
   0.00000,   0.20912
0.97800, 0,   0.000,    0.00,    0.00,    0.00,-1,       0,     1.1000    ,    0.90000    ,     1.5000    ,    0.50000    ,159,  0, 0., 0.
 1.00000, 0.
       4,       9, 0,'1 ',1,1,1,   0.00000,   0.00000, 2,'', 1,   1,1.0000,,,,,,,
   0.00000,   0.55618
0.96900, 0,   0.000,    0.00,    0.00,    0.00,-1,       0,     1.1000    ,    0.90000    ,     1.5000    ,    0.50000    ,159,  0, 0., 0.
 1.00000, 0.
       5,       6, 0,'1 ',1,1,1,   0.00000,   0.00000, 2,'', 1,   1,1.0000,,,,,,,
   0.00000,   0.25202
0.93200, 0,   0.000,    0.00,    0.00,    0.00,-1,       0,     1.1000    ,    0.90000    ,     1.5000    ,    0.50000    ,159,  0, 0., 0.
 1.00000, 0.
0 / END OF TRANSFORMER DATA, BEGIN AREA DATA
    1,     2,     0.00,   999.99,'IEEE14      '
0 / END OF AREA DATA, BEGIN TWO-TERMINAL DC DATA
0 / END OF TWO-TERMINAL DC DATA, BEGIN VSC DC LINE DATA
0 / END OF VSC DC LINE DATA, BEGIN IMPEDANCE CORRECTION TABLE DATA
0 / END OF IMPEDANCE CORRECTION TABLE DATA, BEGIN MULTI-TERMINAL DC DATA
0 / END OF MULTI-TERMINAL DC DATA, BEGIN MULTI-SECTION LINE DATA
0 / END OF MULTI-SECTION LINE DATA, BEGIN ZONE DATA
    1,'IEEE 14     '
0 / END OF ZONE DATA, BEGIN INTER-AREA TRANSFER DATA
0 / END OF INTER-AREA TRANSFER DATA, BEGIN OWNER DATA
   1, '1           '
0 / END OF OWNER DATA, BEGIN FACTS DEVICE DATA
0 / END OF FACTS DEVICE DATA, BEGIN SWITCHED SHUNT DATA
0 / END SWITCHED SHUNT DATA
0 /
